output/ny_only_package_b/bounded_bus.csv
source_bus,bus_type,vm_pu,vmin_pu,vmax_pu,p_mismatch_mw,q_mismatch_mvar,voltage_below_min_pu,voltage_above_max_pu,violated,invalid_voltage_bounds
50,2,1.09948795557012,0.9,1.1,-1.12111683847615e-06,-1.99511308096589e-06,0,0,0,0
51,2,1.09939162303583,0.9,1.1,-1.93798996406258e-07,-1.25265194128588e-06,0,0,0,0
52,1,1.09186290038839,0.9,1.1,-8.55002470805398e-07,-5.96342444618375e-08,0,0,0,0
53,2,1.08559026709258,0.9,1.1,2.2481772248284e-06,2.45904047346812e-06,0,0,0,0
54,2,1.09891937344127,0.9,1.1,3.99426880903775e-07,-2.55379720748294e-06,0,0,0,0
55,1,1.09907291919973,0.9,1.1,-1.32241515061857e-07,5.32713512703875e-08,0,0,0,0
56,2,1.08316532219453,0.9,1.1,-7.94265304193686e-07,1.20834165784345e-06,0,0,0,0
57,2,1.07951040144257,0.9,1.1,4.95020060498064e-07,-4.47218599930466e-07,0,0,0,0
58,1,1.08365360007547,0.9,1.1,1.07985050590287e-06,-8.75363004304575e-08,0,0,0,0
59,1,1.0849840607582,0.9,1.1,1.20762246069717e-06,-2.02170247209921e-07,0,0,0,0
60,2,1.08941575805564,0.9,1.1,-6.26034335482473e-07,4.05945786319251e-06,0,0,0,0
61,2,1.08954430369256,0.9,1.1,-8.0616229070074e-07,4.21077905699008e-06,0,0,0,0
62,1,1.08429154896874,0.9,1.1,-2.08273731688939e-07,1.72977614367206e-08,0,0,0,0
63,1,1.07110400924003,0.9,1.1,-5.00000679579598e-07,-1.96372387495941e-08,0,0,0,0
64,1,1.08295867907242,0.9,1.1,-8.41638008314622e-08,8.60785207406483e-08,0,0,0,0
65,2,1.09532320597873,0.9,1.1,-4.70983067657471e-07,8.14215664834972e-07,0,0,0,0
66,1,1.08398171023565,0.9,1.1,8.80811061794381e-08,2.10920397011548e-08,0,0,0,0
67,1,1.06599172265884,0.9,1.1,-6.74510050269547e-07,-1.91369909654696e-07,0,0,0,0
68,2,1.04187966900933,0.9,1.1,5.29526846548833e-06,6.01351622719903e-06,0,0,0,0
69,1,1.08293756096777,0.9,1.1,6.95700907351325e-08,3.61680283095156e-08,0,0,0,0
70,1,1.07405143936891,0.9,1.1,7.71088030693981e-09,3.02516870878023e-08,0,0,0,0
71,2,1.07486676136008,0.9,1.1,-1.09087972077759e-06,5.42787204871331e-06,0,0,0,0
72,2,1.08666606278527,0.9,1.1,-6.54302340308277e-07,2.99363459532742e-06,0,0,0,0
20002,1,1.04762976373404,0.9,1.1,1.83400405973089e-10,-4.83014209141583e-11,0,0,0,0
20003,1,1.05385384857449,0.9,1.1,1.6155410342833e-09,-2.48463489366246e-10,0,0,0,0
20004,1,1.04787623739922,0.9,1.1,4.84118899635178e-07,-7.10323716512917e-08,0,0,0,0
20005,1,1.05566478769449,0.9,1.1,6.30886454189294e-09,-9.05045656474091e-10,0,0,0,0
20006,2,1.06923219063609,0.9,1.1,-6.93212758307027e-08,8.91045827122738e-08,0,0,0,0
20007,1,1.06753311943624,0.9,1.1,1.9701150044682e-08,-3.09246179011624e-09,0,0,0,0
20008,1,1.0490417386684,0.9,1.1,8.68703686762728e-09,-1.39639281040993e-09,0,0,0,0
20009,1,1.08269916395485,0.9,1.1,6.70123910140319e-07,1.01212482145341e-07,0,0,0,0
20010,1,1.03924227928598,0.9,1.1,9.15029083614627e-08,-1.43695767090835e-08,0,0,0,0
20011,1,1.05402841142227,0.9,1.1,4.15333278880325e-09,-6.91596606372524e-10,0,0,0,0
20012,1,1.05800935532955,0.9,1.1,1.04431929770499e-09,-1.65011580788299e-10,0,0,0,0
20013,1,1.05361770354492,0.9,1.1,4.19142764940261e-09,-4.14962769007543e-10,0,0,0,0
20014,1,1.05214396393484,0.9,1.1,1.17209619787673e-09,-1.80719509994785e-10,0,0,0,0
20015,2,1.06236983248185,0.9,1.1,-4.59033380195706e-08,6.77559692574548e-07,0,0,0,0
20016,1,1.04867489480435,0.9,1.1,6.58080505644421e-08,-2.15131384928569e-10,0,0,0,0
20017,2,1.08105066635441,0.9,1.1,-5.50601839677256e-07,1.33979357030967e-06,0,0,0,0
20018,2,1.08140729499174,0.9,1.1,-5.23721951140033e-07,1.53637311228749e-06,0,0,0,0
20019,2,1.06456026490053,0.9,1.1,-1.91231201824849e-05,2.35401168566796e-05,0,0,0,0
20020,1,1.04879686727479,0.9,1.1,2.15615754584064e-07,-3.22010647313409e-08,0,0,0,0
20021,2,1.048934537986,0.9,1.1,-1.29428061512726e-06,5.42871356135066e-06,0,0,0,0
20022,1,1.04365261938062,0.9,1.1,2.77962097783302e-11,-8.46213290411901e-12,0,0,0,0
20023,1,1.03843181539993,0.9,1.1,2.01661368492978e-07,-3.64797970206065e-08,0,0,0,0
20025,1,1.07220938005712,0.9,1.1,7.80880249351412e-10,-1.25733885109058e-10,0,0,0,0
20026,2,1.08409041690419,0.9,1.1,-1.4150354445519e-05,0.000114676293662797,0,0,0,0
20028,1,1.06243858466178,0.9,1.1,6.93807855611794e-09,-1.38079912087585e-09,0,0,0,0
20031,2,1.05121904280972,0.9,1.1,3.35850813826255e-09,-3.1704478339889e-07,0,0,0,0
20032,2,1.05107169577322,0.9,1.1,-3.22868942248533e-07,6.40422282316422e-07,0,0,0,0
20035,2,1.05215260504891,0.9,1.1,1.59630868523664e-07,-4.69573922190492e-07,0,0,0,0
20036,1,1.05209197169358,0.9,1.1,2.86449648001508e-07,-5.26606355744086e-08,0,0,0,0
20040,1,1.07281843855356,0.9,1.1,3.77449760335935e-09,-5.93382894903405e-10,0,0,0,0
20049,1,1.03910699368873,0.9,1.1,2.58027705868358e-08,-3.57442114101714e-09,0,0,0,0
20050,1,1.04109086803426,0.9,1.1,2.0723524229993e-08,-3.29456704972753e-09,0,0,0,0
20059,1,1.07142153980043,0.9,1.1,1.41764435035441e-06,-1.10578831508112e-07,0,0,0,0
20060,2,1.06614415910025,0.9,1.1,2.46557796401703e-09,-2.50951528446564e-07,0,0,0,0
20062,1,1.09256617781818,0.9,1.1,-5.96097291163634e-08,2.51511953396046e-07,0,0,0,0
20063,2,1.09257248846775,0.9,1.1,-7.98929045231489e-06,3.63526261395464e-05,0,0,0,0
20064,1,1.03910364515932,0.9,1.1,4.40223413278318e-09,-7.22525424906584e-10,0,0,0,0
20079,2,1.0846088015582,0.9,1.1,2.38180723499681e-06,-1.17058445994189e-05,0,0,0,0
20080,2,1.05854827135362,0.9,1.1,-1.52699968225534e-07,2.77929819825218e-07,0,0,0,0
20082,2,1.06086810972966,0.9,1.1,-2.4492912586993e-08,-3.0079104540448e-08,0,0,0,0
20083,2,1.07224610698774,0.9,1.1,-2.4731516390375e-08,9.3453672533883e-07,0,0,0,0
20084,2,1.05104646934908,0.9,1.1,6.99388991165506e-09,-1.28415042016661e-07,0,0,0,0
20125,1,1.05971726481615,0.9,1.1,-1.56367145898173e-08,1.16057875115816e-08,0,0,0,0
20126,1,1.05972106678383,0.9,1.1,7.57318874278212e-09,-1.19443326757063e-09,0,0,0,0
20127,2,1.0720479473268,0.9,1.1,-3.93274342513905e-06,2.8743194064873e-06,0,0,0,0
20168,1,1.0418420732863,0.9,1.1,2.1712000641827e-08,-3.42053449637909e-09,0,0,0,0
20186,1,1.07941772534821,0.9,1.1,2.70415272396463e-08,-2.83505155115882e-09,0,0,0,0
20187,1,1.07641361448327,0.9,1.1,1.68535718714224e-08,-1.27030434782238e-09,0,0,0,0
20188,1,1.04853468194435,0.9,1.1,-7.36119787347889e-09,4.12699052449589e-09,0,0,0,0
20189,1,1.05674618274116,0.9,1.1,6.53490106472532e-09,-1.03980298323144e-09,0,0,0,0
20190,1,1.05579068305699,0.9,1.1,-4.76906087953921e-08,3.67947686208403e-08,0,0,0,0
20191,1,1.04423437909118,0.9,1.1,1.52096117034262e-07,-2.28364181731333e-08,0,0,0,0
20192,1,1.05105731736545,0.9,1.1,4.14900341638713e-07,-7.59048435217125e-08,0,0,0,0
20193,1,1.04763412896165,0.9,1.1,3.90440433761796e-07,-6.13330913834531e-08,0,0,0,0
20194,2,1.05406659881733,0.9,1.1,5.88603974449597e-08,-1.7532398910447e-07,0,0,0,0
20195,1,1.05402098926894,0.9,1.1,4.74850381237957e-10,-5.89607789674984e-11,0,0,0,0
20196,1,1.05371569064627,0.9,1.1,1.13762688158658e-09,-1.33594654436187e-10,0,0,0,0
20203,1,1.06575028197045,0.9,1.1,7.9722117796166e-08,-1.09280660041955e-08,0,0,0,0
20204,1,1.07198577972436,0.9,1.1,1.0155866636552e-07,-1.2331697989143e-08,0,0,0,0
20205,1,1.07281368222858,0.9,1.1,1.62304889528286e-07,-2.45000469564771e-08,0,0,0,0
20206,1,1.07387087002022,0.9,1.1,1.60559370243618e-08,-1.40513625040972e-09,0,0,0,0
20366,1,1.07238158836134,0.9,1.1,8.48754337923197e-08,-1.40479915027025e-08,0,0,0,0
20367,1,1.06279355777394,0.9,1.1,6.23837870250554e-09,-8.81339619340782e-10,0,0,0,0
20368,2,1.06130246319474,0.9,1.1,-8.63414051366362e-08,7.38785139731135e-08,0,0,0,0
20369,1,1.05815610168917,0.9,1.1,5.53606271935791e-09,-9.82145744940488e-10,0,0,0,0
20370,1,1.04723943107216,0.9,1.1,9.97887905640482e-09,-1.48866544091852e-09,0,0,0,0
20371,1,1.05318627512923,0.9,1.1,9.04748276298051e-09,-1.03385329811023e-09,0,0,0,0
20372,1,1.05543820082039,0.9,1.1,1.91674569549605e-08,-2.58499957550562e-09,0,0,0,0
20373,1,1.05558702550753,0.9,1.1,5.61034951829242e-09,-8.78160391626359e-10,0,0,0,0
20374,1,1.05525838007059,0.9,1.1,-2.28943671132242e-07,3.90835010188884e-08,0,0,0,0
20375,1,1.05754281547288,0.9,1.1,5.52778267604026e-09,-6.75773673131097e-10,0,0,0,0
20376,1,1.05698581737386,0.9,1.1,4.24479829064239e-09,-6.28049218534543e-10,0,0,0,0
20377,1,1.05829868118564,0.9,1.1,3.72450781327416e-09,-5.41609162033052e-10,0,0,0,0
20378,2,1.05957039968407,0.9,1.1,2.40209008239844e-08,-1.78421469376744e-07,0,0,0,0
20379,1,1.06149232340846,0.9,1.1,1.01178088129927e-08,-3.24862064332576e-09,0,0,0,0
20380,1,1.04984934118641,0.9,1.1,2.47664463159936e-07,-3.18099395782423e-08,0,0,0,0
20381,2,1.05182452674022,0.9,1.1,-2.87096717954682e-07,7.72400517767835e-07,0,0,0,0
20382,1,1.04532235847247,0.9,1.1,1.20849996676498e-10,4.23720954156881e-11,0,0,0,0
20383,1,1.04666964737145,0.9,1.1,9.47897760283922e-08,-1.19189475997206e-08,0,0,0,0
20384,1,1.04373854637882,0.9,1.1,1.63685953680215e-10,-7.58831582639563e-11,0,0,0,0
20385,1,1.04271513502658,0.9,1.1,1.07654063441487e-09,-1.67297295808333e-10,0,0,0,0
20386,1,1.0431076942028,0.9,1.1,4.96211383094192e-08,3.75316975848722e-10,0,0,0,0
20387,1,1.044099664956,0.9,1.1,1.10283249199483e-09,2.43056659868235e-10,0,0,0,0
20388,1,1.04059070399327,0.9,1.1,7.19174408914114e-09,-1.17623679893319e-09,0,0,0,0
20389,1,1.04017555238018,0.9,1.1,2.28259811052567e-09,-1.89333455597601e-10,0,0,0,0
20390,1,1.04279645562914,0.9,1.1,1.07498721035881e-09,-1.76242679304772e-10,0,0,0,0
20391,1,1.04531027146368,0.9,1.1,3.49748674466355e-09,-8.76815026834565e-10,0,0,0,0
20392,1,1.04817038849393,0.9,1.1,9.20881593202694e-10,-1.17987585847301e-10,0,0,0,0
20393,1,1.04881054368702,0.9,1.1,1.18713110452973e-07,-2.19550458976231e-08,0,0,0,0
20394,1,1.06573386773449,0.9,1.1,2.65389488163237e-10,-7.01208188735869e-11,0,0,0,0
20395,2,1.0898718094613,0.9,1.1,-4.68603394665479e-06,1.90479546446909e-05,0,0,0,0
20396,1,1.05099718861015,0.9,1.1,4.30952429297804e-09,-5.85689136078926e-10,0,0,0,0
20397,1,1.05099738609894,0.9,1.1,4.30025126618716e-09,-7.0368472333826e-10,0,0,0,0
20398,1,1.05104506781418,0.9,1.1,3.40338557336395e-09,-5.4152862749568e-10,0,0,0,0
20399,2,1.03789902288774,0.9,1.1,-1.48122070697809e-06,5.38047813591902e-06,0,0,0,0
20400,1,1.0382715912594,0.9,1.1,4.39493037518446e-08,-1.69383358901432e-08,0,0,0,0
20401,1,1.05112754260242,0.9,1.1,1.18052918551825e-08,-1.87581408739312e-09,0,0,0,0
20402,1,1.06161238069547,0.9,1.1,3.90818755136024e-08,-7.96942199732253e-09,0,0,0,0
20403,1,1.05056952838021,0.9,1.1,6.58788641416663e-08,-1.35328668410262e-08,0,0,0,0
20404,1,1.05047446445291,0.9,1.1,1.62776170320456e-08,-2.65283619724221e-09,0,0,0,0
20405,2,1.05051877147297,0.9,1.1,-9.21083760374586e-08,-4.18339889840524e-07,0,0,0,0
20406,2,1.05049774324208,0.9,1.1,-3.54109808142766e-08,-2.85093868734876e-07,0,0,0,0
20407,2,1.05031906806387,0.9,1.1,-1.8541038215858e-07,-5.92415543287927e-08,0,0,0,0
20408,2,1.05018515790549,0.9,1.1,-2.73650037740936e-07,3.21327783492364e-07,0,0,0,0
20409,2,1.04993282425632,0.9,1.1,-3.90734047783781e-07,9.92521985931916e-07,0,0,0,0
20410,1,1.04904418265065,0.9,1.1,1.69941474226221e-08,-2.37242239742308e-09,0,0,0,0
20411,1,1.04945759804481,0.9,1.1,3.37969350283629e-08,-5.15537161571711e-09,0,0,0,0
20412,1,1.0411426693125,0.9,1.1,4.04284552502077e-08,-6.33682238626587e-09,0,0,0,0
20413,1,1.04225622740324,0.9,1.1,1.98655278893511e-08,-4.17952755737971e-09,0,0,0,0
20414,1,1.0486916343295,0.9,1.1,-5.17939469091289e-10,-1.97115952033089e-09,0,0,0,0
20415,1,1.05974606696007,0.9,1.1,5.97895741805132e-08,-5.67735303214079e-09,0,0,0,0
20416,1,1.05969873724012,0.9,1.1,7.57309992494015e-09,-1.19888855787398e-09,0,0,0,0
20417,1,1.06024277800679,0.9,1.1,1.4814684590192e-08,-2.25359453320806e-09,0,0,0,0
20418,1,1.05844982826619,0.9,1.1,6.50257092615902e-08,-1.08501971296526e-08,0,0,0,0
20419,1,1.04094251245963,0.9,1.1,2.12843245250838e-08,-3.06326266436008e-09,0,0,0,0
20420,1,1.04094826781315,0.9,1.1,2.13443174246208e-08,-3.42528592295333e-09,0,0,0,0
20421,1,1.03924156354485,0.9,1.1,8.76098749102994e-09,-1.39872627369364e-09,0,0,0,0
20422,1,1.03910484121788,0.9,1.1,8.76780603675797e-09,-1.33432605242678e-09,0,0,0,0
20423,1,1.03981027906778,0.9,1.1,1.76986194588835e-08,-2.73709700737701e-09,0,0,0,0
20424,1,1.04299743598411,0.9,1.1,-2.79815495218827e-08,7.47554188690325e-09,0,0,0,0
20425,1,1.04251149250141,0.9,1.1,2.22239737723839e-09,-3.53045370715677e-10,0,0,0,0
20426,1,1.04088072207806,0.9,1.1,1.89018898311133e-08,-3.02367731547237e-09,0,0,0,0
20427,1,1.043386794578,0.9,1.1,2.64165125329896e-08,-4.1789006283155e-09,0,0,0,0
20428,1,1.06430570000367,0.9,1.1,1.29108839175274e-08,-2.06886660580885e-09,0,0,0,0
20429,1,1.06426616103394,0.9,1.1,1.93198346210011e-08,-3.05957065238616e-09,0,0,0,0
20430,1,1.05800249324387,0.9,1.1,4.99978716206328e-08,-6.5161513337908e-09,0,0,0,0
20431,1,1.05053044851795,0.9,1.1,4.99384116281476e-08,-6.93576871282908e-09,0,0,0,0
20432,1,1.04646061946404,0.9,1.1,4.46779502283334e-10,-8.56050039882428e-11,0,0,0,0
20433,1,1.04644652251808,0.9,1.1,2.38155273279972e-10,-3.29984303770736e-11,0,0,0,0
20434,1,1.04518845555214,0.9,1.1,1.36391509641953e-07,-1.94741906628382e-08,0,0,0,0
20435,1,1.04228562468781,0.9,1.1,8.30446822419617e-13,4.63949625245652e-12,0,0,0,0
20436,1,1.04224491952782,0.9,1.1,7.65032481808703e-12,1.53548181114349e-10,0,0,0,0
20437,1,1.04223758343939,0.9,1.1,4.33919566944496e-12,4.23240002073166e-12,0,0,0,0
20438,1,1.04270462593016,0.9,1.1,5.40233191514972e-10,-8.60687931515669e-11,0,0,0,0
20439,1,1.04507374790881,0.9,1.1,1.37094779972813e-11,-1.44039944902086e-11,0,0,0,0
20440,1,1.04507217074201,0.9,1.1,-3.53343132530881e-10,9.37023895974942e-11,0,0,0,0
20441,1,1.05882702325781,0.9,1.1,2.12071871175112e-09,-1.1717233953934e-09,0,0,0,0
20442,1,1.04968484247575,0.9,1.1,1.43335476820994e-08,-2.21904543351581e-09,0,0,0,0
20443,1,1.04968738596809,0.9,1.1,1.45239629212313e-08,-1.58504702418849e-09,0,0,0,0
20444,1,1.05192539925472,0.9,1.1,1.1997799198582e-08,-1.90199921784595e-09,0,0,0,0
20445,1,1.05612183400473,0.9,1.1,1.85096968863263e-08,-2.92337248158914e-09,0,0,0,0
20446,1,1.06418104035105,0.9,1.1,6.46258202507966e-09,-1.02419722008973e-09,0,0,0,0
20447,1,1.06534975567019,0.9,1.1,2.74548550116549e-07,-4.62060757711047e-08,0,0,0,0
20448,1,1.05332602990539,0.9,1.1,1.13532205858746e-09,-1.74215503134789e-10,0,0,0,0
20449,1,1.04744820850745,0.9,1.1,2.99263582803633e-07,-4.82649392674617e-08,0,0,0,0
20450,1,1.03981520046205,0.9,1.1,2.82804549556204e-07,-4.57400436970623e-08,0,0,0,0
20451,1,1.03927404081921,0.9,1.1,9.15791886768602e-11,-1.348131675738e-11,0,0,0,0
20452,1,1.03945932768586,0.9,1.1,1.8304113780232e-10,-2.47630041472213e-11,0,0,0,0
20453,1,1.03896704027411,0.9,1.1,2.7536195545963e-11,-4.74778853384872e-11,0,0,0,0
20454,1,1.03894515396704,0.9,1.1,6.60058674384345e-11,-1.50994028478429e-10,0,0,0,0
20455,1,1.04250170927547,0.9,1.1,2.99785041235623e-08,-5.04622689391932e-09,0,0,0,0
20456,1,1.04374608215492,0.9,1.1,3.13445713828742e-10,-1.01199738422163e-10,0,0,0,0
20457,1,1.04655972461089,0.9,1.1,3.53369467021025e-08,-5.92557263564934e-09,0,0,0,0
20458,1,1.05327092763201,0.9,1.1,6.65363764085214e-10,-5.47063194983148e-10,0,0,0,0
20459,1,1.06022977965705,0.9,1.1,7.45808765856282e-08,-1.36856076167827e-08,0,0,0,0
20460,1,1.05211872848905,0.9,1.1,5.85349990700479e-10,-9.09339132313704e-11,0,0,0,0
20461,1,1.04335281716832,0.9,1.1,1.33215305453405e-09,1.8738100480975e-09,0,0,0,0
20462,1,1.04803920377462,0.9,1.1,9.21157372602011e-09,-1.45492923264712e-09,0,0,0,0
20463,2,1.05012938459891,0.9,1.1,-7.24210025282446e-09,-1.03671183679377e-07,0,0,0,0
20464,1,1.04875051303479,0.9,1.1,1.10034452660557e-08,-1.9442062543229e-09,0,0,0,0
20465,1,1.04832017097677,0.9,1.1,1.17797198662117e-08,-3.88684241042769e-09,0,0,0,0
20466,1,1.04821287344519,0.9,1.1,2.93720781030515e-09,1.7268388108338e-09,0,0,0,0
20467,1,1.04810927894908,0.9,1.1,5.97672533686477e-09,-9.66170633082131e-10,0,0,0,0
20468,1,1.04768934301358,0.9,1.1,1.86147186553853e-09,-3.02033311555538e-10,0,0,0,0
20469,2,1.04821759575231,0.9,1.1,-1.13616991370691e-08,-7.17195192123654e-11,0,0,0,0
20470,1,1.04878495240426,0.9,1.1,3.91461218995914e-09,-6.35669598555988e-10,0,0,0,0
20471,1,1.05391787877723,0.9,1.1,2.44815723249303e-10,-4.05476433679164e-11,0,0,0,0
20472,1,1.047778076535,0.9,1.1,8.73303473980513e-09,-1.39532847082124e-09,0,0,0,0
20473,1,1.05115057728286,0.9,1.1,-3.20188320301895e-12,-3.65712234801086e-12,0,0,0,0
20474,2,1.0496395333986,0.9,1.1,1.57417126445125e-07,1.12902613302879e-06,0,0,0,0
20475,1,1.04711747080843,0.9,1.1,2.21707985303965e-10,-4.40863057865615e-11,0,0,0,0
20476,1,1.04721143170069,0.9,1.1,2.06358485854707e-10,2.89936911285205e-11,0,0,0,0
20477,1,1.07098710147678,0.9,1.1,3.36684164992107e-08,-5.07805698532482e-09,0,0,0,0
20478,1,1.04045835982863,0.9,1.1,2.56368259954343e-10,-4.04052442545821e-11,0,0,0,0
20479,1,1.04402545879762,0.9,1.1,-2.5756063948279e-11,-8.16853908732623e-11,0,0,0,0
20480,1,1.03827246708186,0.9,1.1,1.22652616951768e-08,-2.17237051372728e-09,0,0,0,0
20481,1,1.03798546470645,0.9,1.1,8.638007642503e-09,-1.53618291047833e-09,0,0,0,0
...
